7PRM.A (2)
  MOE2022           3D
HYDROLASE
 19 21  0  0  0  0  0  0  0  0999 V2000
  128.0810   21.6880   -5.7930 C   0  0  0  0  0  0  0  0  0  0  0  0
  126.7540   21.8200   -6.1630 C   0  0  0  0  0  0  0  0  0  0  0  0
  125.7870   21.0040   -5.5840 C   0  0  0  0  0  0  0  0  0  0  0  0
  124.4090   21.1260   -5.9380 N   0  0  0  0  0  0  0  0  0  0  0  0
  123.3970   21.2110   -5.0450 C   0  0  0  0  0  0  0  0  0  0  0  0
  123.5320   21.2480   -3.8270 O   0  0  0  0  0  0  0  0  0  0  0  0
  122.1020   21.2070   -5.8060 C   0  0  0  0  0  0  0  0  0  0  0  0
  122.4740   20.6380   -7.1770 C   0  0  0  0  0  0  0  0  0  0  0  0
  123.9340   21.0770   -7.3240 C   0  0  0  0  0  0  0  0  0  0  0  0
  126.1780   20.0400   -4.6580 C   0  0  0  0  0  0  0  0  0  0  0  0
  127.5080   19.9010   -4.3160 C   0  0  0  0  0  0  0  0  0  0  0  0
  128.4830   20.7310   -4.8610 C   0  0  0  0  0  0  0  0  0  0  0  0
  129.9050   20.5860   -4.4730 C   0  0  0  0  0  0  0  0  0  0  0  0
  130.2630   20.0110   -3.2540 C   0  0  0  0  0  0  0  0  0  0  0  0
  131.5890   19.8840   -2.8820 C   0  0  0  0  0  0  0  0  0  0  0  0
  132.5500   20.3300   -3.7490 C   0  0  0  0  0  0  0  0  0  0  0  0
  132.2530   20.9320   -4.9390 C   0  0  0  0  0  0  0  0  0  0  0  0
  130.9220   21.0780   -5.2860 C   0  0  0  0  0  0  0  0  0  0  0  0
  133.8600   20.2020   -3.3960 F   0  0  0  0  0  0  0  0  0  0  0  0
  1  2  1  0  0  0  0
  1 12  2  0  0  0  0
  2  3  2  0  0  0  0
  3  4  1  0  0  0  0
  3 10  1  0  0  0  0
  4  5  1  0  0  0  0
  4  9  1  0  0  0  0
  5  6  2  0  0  0  0
  5  7  1  0  0  0  0
  7  8  1  0  0  0  0
  8  9  1  0  0  0  0
 10 11  2  0  0  0  0
 11 12  1  0  0  0  0
 12 13  1  0  0  0  0
 13 14  1  0  0  0  0
 13 18  2  0  0  0  0
 14 15  2  0  0  0  0
 15 16  1  0  0  0  0
 16 17  2  0  0  0  0
 16 19  1  0  0  0  0
 17 18  1  0  0  0  0
M  END
$$$$
